Version 4
SHEET 1 2464 680
WIRE 208 -96 144 -96
WIRE 352 -96 288 -96
WIRE 496 -96 352 -96
WIRE 2128 -32 2080 -32
WIRE 2304 -32 2128 -32
WIRE 352 -16 352 -96
WIRE 496 -16 496 -96
WIRE 1056 -16 928 -16
WIRE 928 16 928 -16
WIRE 2080 32 2080 -32
WIRE 496 64 496 48
WIRE 624 64 496 64
WIRE 752 64 624 64
WIRE 848 64 832 64
WIRE 912 64 848 64
WIRE 1104 64 1008 64
WIRE 1184 64 1104 64
WIRE 1200 64 1184 64
WIRE 352 80 352 48
WIRE 2304 80 2304 -32
WIRE 352 96 352 80
WIRE 496 96 496 64
WIRE 624 112 624 64
WIRE 144 128 144 -96
WIRE 752 128 752 64
WIRE 1104 128 1104 64
WIRE 2240 128 2192 128
WIRE 1200 144 1200 64
WIRE 2080 144 2080 112
WIRE 2192 144 2192 128
WIRE 2192 144 2080 144
WIRE 2432 144 2368 144
WIRE 2240 160 2208 160
WIRE 2080 192 2080 144
WIRE 2192 192 2192 144
WIRE 2240 192 2192 192
WIRE 2208 224 2208 160
WIRE 2240 224 2208 224
WIRE 624 256 624 176
WIRE 752 256 752 192
WIRE 752 256 624 256
WIRE 864 256 752 256
WIRE 1104 256 1104 192
WIRE 1104 256 864 256
WIRE 1200 256 1200 224
WIRE 1200 256 1104 256
WIRE 1376 256 1376 224
WIRE 1376 256 1200 256
WIRE 752 272 752 256
WIRE 2272 304 2272 272
WIRE 2336 304 2336 272
WIRE 2336 304 2272 304
WIRE 144 368 144 208
WIRE 352 368 352 160
WIRE 352 368 144 368
WIRE 496 368 496 160
WIRE 496 368 352 368
WIRE 752 368 752 352
WIRE 912 368 752 368
FLAG 864 256 0
FLAG 848 64 vp
FLAG 752 368 vn
FLAG 1184 64 vcc
FLAG 352 80 vn
FLAG 2128 -32 vp
FLAG 2080 272 0
FLAG 928 -96 g
FLAG 2272 304 0
FLAG 2432 144 g
FLAG 1120 -16 0
SYMBOL voltage 144 112 R0
WINDOW 123 0 0 Left 0
WINDOW 39 0 0 Left 0
SYMATTR InstName V1
SYMATTR Value SINE(0 7 50)
SYMBOL diode 480 -16 R0
SYMATTR InstName D1
SYMATTR Value 1N4148
SYMBOL diode 512 160 R180
WINDOW 0 24 64 Left 2
WINDOW 3 24 0 Left 2
SYMATTR InstName D2
SYMATTR Value 1N4148
SYMBOL diode 336 96 R0
SYMATTR InstName D3
SYMATTR Value 1N4148
SYMBOL diode 368 48 R180
WINDOW 0 24 64 Left 2
WINDOW 3 24 0 Left 2
SYMATTR InstName D4
SYMATTR Value 1N4148
SYMBOL cap 608 112 R0
SYMATTR InstName C1
SYMATTR Value 2200µ
SYMBOL res 736 256 R0
SYMATTR InstName R1
SYMATTR Value 4.7
SYMBOL res 304 -112 R90
WINDOW 0 0 56 VBottom 2
WINDOW 3 32 56 VTop 2
SYMATTR InstName R2
SYMATTR Value 6
SYMBOL cap 1088 128 R0
SYMATTR InstName C2
SYMATTR Value 1µ
SYMBOL zener 736 192 M180
WINDOW 0 24 64 Left 2
WINDOW 3 24 0 Left 2
SYMATTR InstName D6
SYMATTR Value UMZ5_1N
SYMATTR Description Diode
SYMATTR Type diode
SYMBOL res 848 48 R90
WINDOW 0 0 56 VBottom 2
WINDOW 3 32 56 VTop 2
SYMATTR InstName R3
SYMATTR Value 0.5
SYMBOL res 2064 16 R0
SYMATTR InstName R5
SYMATTR Value 560k
SYMBOL res 2064 176 R0
SYMATTR InstName R6
SYMATTR Value 220k
SYMBOL pmos 1008 16 R90
SYMATTR InstName M1
SYMATTR Value AO6407
SYMBOL Comparators\\LTC1540 2304 80 R0
SYMATTR InstName U2
SYMBOL res 1184 128 R0
SYMATTR InstName R4
SYMATTR Value 80
SYMBOL res 912 -112 R0
SYMATTR InstName R7
SYMATTR Value 100k
SYMBOL cap 1120 -32 R90
WINDOW 0 0 32 VBottom 2
WINDOW 3 32 32 VTop 2
SYMATTR InstName C3
SYMATTR Value 1µ
TEXT 112 376 Left 2 !.tran 0 1 0.95
