Version 4
SHEET 1 964 680
WIRE 0 -112 -208 -112
WIRE 288 -112 96 -112
WIRE 496 -112 288 -112
WIRE 560 -112 496 -112
WIRE 656 -112 560 -112
WIRE 720 -112 656 -112
WIRE 288 -96 288 -112
WIRE 656 -96 656 -112
WIRE 496 -80 496 -112
WIRE -208 -48 -208 -112
WIRE 416 -32 368 -32
WIRE 720 -32 720 -112
WIRE 608 -16 576 -16
WIRE 656 -16 608 -16
WIRE 288 16 288 -16
WIRE 368 16 368 -32
WIRE 368 16 288 16
WIRE 288 32 288 16
WIRE -208 128 -208 32
WIRE 288 128 288 112
WIRE 288 128 -208 128
WIRE 496 128 496 96
WIRE 496 128 288 128
WIRE 720 128 720 48
WIRE 720 128 496 128
FLAG -208 -112 vcc
FLAG 560 -112 vs
FLAG 608 -16 g
FLAG 80 -64 g
FLAG 288 128 0
SYMBOL pmos 0 -64 R270
SYMATTR InstName M2
SYMATTR Value AO6407
SYMBOL res -224 -64 R0
SYMATTR InstName R2
SYMATTR Value 10k
SYMBOL voltage 720 -48 R0
WINDOW 123 0 0 Left 0
WINDOW 39 0 0 Left 0
SYMATTR InstName V1
SYMATTR Value PWL(0 0 0.5 6 1 0)
SYMBOL Comparators\\LT6703-2 496 -16 R0
SYMATTR InstName U1
SYMBOL res 272 -112 R0
SYMATTR InstName R1
SYMATTR Value 1000k
SYMBOL res 272 16 R0
SYMATTR InstName R3
SYMATTR Value 100k
SYMBOL res 640 -112 R0
SYMATTR InstName R4
SYMATTR Value 100k
TEXT -242 138 Left 2 !.tran 1
